include kalj.lmp
units lj
atom_style atomic

variable dimensions equal 3
variable density equal 1.2
variable fraca equal 0.8

dimension 3
read_restart equil/kalj_T2_n360_v300_10000_1.final.lmprestart.10000
Reading restart file ...
  restart file = 15 Sep 2022, LAMMPS = 15 Sep 2022
  restoring atom style atomic from restart
  orthogonal box = (0 0 0) to (6.6943295 6.6943295 6.6943295)
  restoring pair style lj/cut from restart
  360 atoms
  read_restart CPU = 0.001 seconds
include kalj_particles.lmp
mass * 1.0 #  set mass 1.0 for all types

pair_style lj/cut 2.5
#pair coeffs type1 type2 eps sigma
pair_coeff 1 1 1.0 1.00 2.5
pair_coeff 1 2 1.5 0.80 2.0
pair_coeff 2 2 0.5 0.88 2.2
pair_modify shift yes
reset_timestep 0

print "Setting up annealing run"
Setting up annealing run
dump 1 all atom 10000 equil/kalj_T1.5_n360_v300_10000_1.lammpstrj
#dump_modify 1 sort id scale no

restart 10000 equil/kalj_T1.5_n360_v300_10000_1.restart
restart 10000 equil/kalj_T1.5_n360_v300_10000_1.final.lmprestart

thermo 1000
timestep 0.002

neighbor 0.5 bin
neigh_modify every 1 delay 20 check yes

velocity all create 1.5 1 dist gaussian
fix 1 all nvt temp 1.5 1.5 0.2
run 10000
Generated 0 of 1 mixed pair_coeff terms from geometric mixing rule
Step          Temp          E_pair         E_mol          TotEng         Press
0   1.5            4.8229584      0              7.0667084      72.700026
Averages over the last 6 of 11 rows, steps 5000 to 10000:
Temp E_pair E_mol TotEng Press
1.54156 -5.28804 0 -2.98213 14.9419
Loop time of 2.75859 on 1 procs for 10000 steps with 360 atoms
